<?xml version="1.0" encoding="UTF-8"?>

<!-- generated on 2025-09-22 21:54:05 by Eclipse SUMO netedit Version 1.24.0
<neteditConfiguration xmlns:xsi="http://www.w3.org/2001/XMLSchema-instance" xsi:noNamespaceSchemaLocation="http://sumo.dlr.de/xsd/neteditConfiguration.xsd">

    <input>
        <sumo-net-file value="C:\Users\hzysg\Desktop\强化学习\UAM-Path-Planning-main\sumo_envs\zeyun_UAM\two_car_stable.net.xml"/>
    </input>

    <output>
        <output-file value="C:\Users\hzysg\Desktop\强化学习\UAM-Path-Planning-main\sumo_envs\zeyun_UAM\two_car_stable.net.xml"/>
    </output>

    <processing>
        <geometry.min-radius.fix.railways value="false"/>
        <geometry.avoid-overlap value="false"/>
        <geometry.max-grade.fix value="false"/>
        <offset.disable-normalization value="true"/>
        <lefthand value="0"/>
    </processing>

    <junctions>
        <no-internal-links value="true"/>
        <no-turnarounds value="true"/>
        <junctions.corner-detail value="5"/>
        <junctions.limit-turn-speed value="5.50"/>
        <rectangular-lane-cut value="0"/>
    </junctions>

    <pedestrian>
        <walkingareas value="0"/>
    </pedestrian>

</neteditConfiguration>
-->

<net version="1.20" junctionCornerDetail="5" limitTurnSpeed="5.50" avoidOverlap="0" xmlns:xsi="http://www.w3.org/2001/XMLSchema-instance" xsi:noNamespaceSchemaLocation="http://sumo.dlr.de/xsd/net_file.xsd">

    <location netOffset="0.00,0.00" convBoundary="-173.00,106.84,398.41,106.91" origBoundary="-10000000000.00,-10000000000.00,10000000000.00,10000000000.00" projParameter="!"/>

    <edge id="-E0" from="J1" to="J0" priority="-1">
        <lane id="-E0_0" index="0" speed="13.89" length="571.41" shape="398.41,108.51 -173.00,108.44"/>
    </edge>
    <edge id="E0" from="J0" to="J1" priority="-1" length="100.00">
        <lane id="E0_0" index="0" speed="13.89" length="100.00" shape="-173.00,105.24 398.41,105.31"/>
    </edge>

    <junction id="J0" type="dead_end" x="-173.00" y="106.84" incLanes="-E0_0" intLanes="" shape="-173.00,106.84 -173.00,110.04 -173.00,106.84"/>
    <junction id="J1" type="dead_end" x="398.41" y="106.91" incLanes="E0_0" intLanes="" shape="398.41,106.91 398.41,103.71 398.41,106.91"/>

</net>
