<?xml version="1.0" encoding="UTF-8"?>

<!-- generated on 2025-07-29 13:40:40 by Eclipse SUMO sumo Version 1.23.1
-->

<configuration xmlns:xsi="http://www.w3.org/2001/XMLSchema-instance" xsi:noNamespaceSchemaLocation="http://sumo.dlr.de/xsd/sumoConfiguration.xsd">

    <input>
        <net-file value="zeyun_UAM.net.xml"/>
        <route-files value="zeyun_UAM.rou.xml"/>
    </input>

</configuration>
