<?xml version="1.0" encoding="UTF-8"?>

<!-- generated on 2024-05-28 10:45:57 by Eclipse SUMO netconvert Version 1.19.0
<configuration xmlns:xsi="http://www.w3.org/2001/XMLSchema-instance" xsi:noNamespaceSchemaLocation="http://sumo.dlr.de/xsd/netconvertConfiguration.xsd">

    <input>
        <type-files value="D:\ProgramData\Anaconda3\envs\trans\lib\site-packages\tshub\sumo_tools\./osm_build_type/net.typ.xml"/>
        <osm-files value="C:\Users\ricca\OneDrive\OneDrive%20-%20CUHK-Shenzhen\RA_419\UAV_Path_planing\code\map_dataset\berlin_UAM\berlin_UAM.osm"/>
    </input>

    <output>
        <output-file value="C:\Users\ricca\OneDrive\OneDrive%20-%20CUHK-Shenzhen\RA_419\UAV_Path_planing\code\map_dataset\berlin_UAM\berlin_UAM.net.xml"/>
        <output.street-names value="true"/>
        <output.original-names value="true"/>
    </output>

    <projection>
        <proj.utm value="true"/>
    </projection>

    <processing>
        <geometry.remove value="true"/>
        <roundabouts.guess value="true"/>
    </processing>

    <building_defaults>
        <default.lanenumber value="3"/>
    </building_defaults>

    <tls_building>
        <tls.discard-simple value="true"/>
        <tls.guess value="true"/>
        <tls.guess.threshold value="12"/>
        <tls.join value="true"/>
        <tls.guess-signals value="true"/>
        <tls.green.time value="30"/>
        <tls.layout value="incoming"/>
    </tls_building>

    <ramp_guessing>
        <ramps.guess value="true"/>
    </ramp_guessing>

    <edge_removal>
        <keep-edges.by-vclass value="passenger"/>
    </edge_removal>

    <junctions>
        <no-turnarounds value="true"/>
        <junctions.join value="true"/>
        <junctions.corner-detail value="5"/>
    </junctions>

</configuration>
-->

<net version="1.16" junctionCornerDetail="5" limitTurnSpeed="5.50" xmlns:xsi="http://www.w3.org/2001/XMLSchema-instance" xsi:noNamespaceSchemaLocation="http://sumo.dlr.de/xsd/net_file.xsd">

    <location netOffset="-392140.80,-5816833.13" convBoundary="0.00,0.00,3631.39,3321.91" origBoundary="13.392239,52.481027,13.496897,52.523904" projParameter="+proj=utm +zone=33 +ellps=WGS84 +datum=WGS84 +units=m +no_defs"/>

    <type id="highway.living_street" priority="2" numLanes="1" speed="2.78" disallow="tram rail_urban rail rail_electric rail_fast ship" oneway="0"/>
    <type id="highway.primary" priority="12" numLanes="2" speed="27.78" disallow="tram rail_urban rail rail_electric rail_fast ship" oneway="0"/>
    <type id="highway.residential" priority="3" numLanes="2" speed="13.89" disallow="tram rail_urban rail rail_electric rail_fast ship" oneway="0"/>
    <type id="highway.secondary" priority="11" numLanes="1" speed="27.78" disallow="tram rail_urban rail rail_electric rail_fast ship" oneway="0"/>
    <type id="highway.secondary_link" priority="6" numLanes="1" speed="22.22" disallow="tram rail_urban rail rail_electric rail_fast ship" oneway="0"/>
    <type id="highway.tertiary" priority="10" numLanes="1" speed="22.22" disallow="tram rail_urban rail rail_electric rail_fast ship" oneway="0"/>
    <type id="highway.unclassified" priority="4" numLanes="1" speed="13.89" disallow="tram rail_urban rail rail_electric rail_fast ship" oneway="0"/>

    <edge id=":10073921790_0" function="internal">
        <lane id=":10073921790_0_0" index="0" disallow="pedestrian tram rail_urban rail rail_electric rail_fast ship" speed="13.89" length="0.21" shape="1979.75,2551.63 1979.96,2551.58"/>
        <lane id=":10073921790_0_1" index="1" disallow="pedestrian tram rail_urban rail rail_electric rail_fast ship" speed="13.89" length="0.21" shape="1982.89,2551.02 1983.10,2550.97"/>
    </edge>
    <edge id=":10073921790_2" function="internal">
        <lane id=":10073921790_2_0" index="0" disallow="pedestrian tram rail_urban rail rail_electric rail_fast ship" speed="13.89" length="0.10" shape="1985.97,2550.41 1986.03,2550.40"/>
    </edge>
    <edge id=":10073921793_0" function="internal">
        <lane id=":10073921793_0_0" index="0" disallow="pedestrian tram rail_urban rail rail_electric rail_fast ship" speed="13.89" length="0.24" shape="1977.77,2494.99 1977.86,2495.27"/>
        <lane id=":10073921793_0_1" index="1" disallow="pedestrian tram rail_urban rail rail_electric rail_fast ship" speed="13.89" length="0.24" shape="1974.75,2496.06 1974.81,2496.24"/>
    </edge>
    <edge id=":10188154640_0" function="internal">
        <lane id=":10188154640_0_0" index="0" disallow="pedestrian tram rail_urban rail rail_electric rail_fast ship" speed="8.33" length="8.39" shape="2912.30,2312.93 2910.09,2314.11 2908.94,2315.61 2907.79,2317.11 2905.58,2318.30"/>
        <lane id=":10188154640_0_1" index="1" disallow="pedestrian tram rail_urban rail rail_electric rail_fast ship" speed="8.33" length="8.39" shape="2912.30,2312.93 2904.65,2315.24"/>
    </edge>
    <edge id=":10188154640_2" function="internal">
        <lane id=":10188154640_2_0" index="0" disallow="pedestrian tram rail_urban rail rail_electric rail_fast ship" speed="8.33" length="8.01" shape="2903.71,2312.18 2911.38,2309.86"/>
    </edge>
    <edge id=":10197611586_0" function="internal">
        <lane id=":10197611586_0_0" index="0" disallow="pedestrian tram rail_urban rail rail_electric rail_fast ship" speed="8.33" length="8.54" shape="2407.85,1212.64 2409.72,1214.31 2411.53,1214.88 2413.33,1215.45 2415.21,1217.12"/>
        <lane id=":10197611586_0_1" index="1" disallow="pedestrian tram rail_urban rail rail_electric rail_fast ship" speed="8.33" length="8.54" shape="2407.85,1212.64 2412.65,1219.04"/>
        <lane id=":10197611586_0_2" index="2" disallow="pedestrian tram rail_urban rail rail_electric rail_fast ship" speed="8.33" length="8.54" shape="2407.85,1212.64 2408.92,1214.91 2408.97,1216.80 2409.01,1218.69 2410.09,1220.96"/>
    </edge>
    <edge id=":10207936418_0" function="internal">
        <lane id=":10207936418_0_0" index="0" disallow="pedestrian tram rail_urban rail rail_electric rail_fast ship" speed="13.89" length="8.21" shape="2486.41,1342.13 2487.71,1344.16 2488.92,1345.35 2490.13,1346.54 2491.42,1348.57"/>
    </edge>
    <edge id=":10207936419_0" function="internal">
        <lane id=":10207936419_0_0" index="0" disallow="pedestrian tram rail_urban rail rail_electric rail_fast ship" speed="13.89" length="8.21" shape="2531.44,1428.68 2532.73,1430.71 2533.94,1431.90 2535.15,1433.08 2536.45,1435.11"/>
        <lane id=":10207936419_0_1" index="1" disallow="pedestrian tram rail_urban rail rail_electric rail_fast ship" speed="13.89" length="8.21" shape="2531.44,1428.68 2532.28,1430.94 2532.51,1432.62 2532.74,1434.30 2533.60,1436.55"/>
    </edge>
    <edge id=":10254147929_0" function="internal">
        <lane id=":10254147929_0_0" index="0" disallow="pedestrian tram rail_urban rail rail_electric rail_fast ship" speed="13.89" length="8.54" shape="1667.80,1965.54 1665.74,1964.10 1663.88,1963.75 1662.02,1963.39 1659.96,1961.96"/>
        <lane id=":10254147929_0_1" index="1" disallow="pedestrian tram rail_urban rail rail_electric rail_fast ship" speed="13.89" length="8.54" shape="1667.80,1965.54 1662.28,1959.75"/>
        <lane id=":10254147929_0_2" index="2" disallow="pedestrian tram rail_urban rail rail_electric rail_fast ship" speed="13.89" length="8.54" shape="1667.80,1965.54 1666.46,1963.41 1666.20,1961.54 1665.93,1959.67 1664.60,1957.54"/>
    </edge>
    <edge id=":10254148068_0" function="internal">
        <lane id=":10254148068_0_0" index="0" disallow="pedestrian tram rail_urban rail rail_electric rail_fast ship" speed="13.89" length="0.28" shape="1697.98,1997.48 1698.14,1997.71"/>
    </edge>
    <edge id=":10254148068_1" function="internal">
        <lane id=":10254148068_1_0" index="0" disallow="pedestrian tram rail_urban rail rail_electric rail_fast ship" speed="13.89" length="0.26" shape="1700.46,1995.39 1700.50,1995.46 1700.52,1995.51 1700.54,1995.56 1700.58,1995.62"/>
    </edge>
    <edge id=":10283936661_0" function="internal">
        <lane id=":10283936661_0_0" index="0" disallow="pedestrian tram rail_urban rail rail_electric rail_fast ship" speed="8.33" length="8.21" shape="513.32,2662.11 513.98,2664.42 514.80,2665.90 515.63,2667.38 516.30,2669.70"/>
        <lane id=":10283936661_0_1" index="1" disallow="pedestrian tram rail_urban rail rail_electric rail_fast ship" speed="8.33" length="8.21" shape="510.17,2662.67 510.83,2664.98 511.65,2666.47 512.48,2667.95 513.15,2670.26"/>
        <lane id=":10283936661_0_2" index="2" disallow="pedestrian tram rail_urban rail rail_electric rail_fast ship" speed="8.33" length="8.21" shape="510.17,2662.67 510.34,2665.07 510.08,2666.75 509.82,2668.43 510.00,2670.83"/>
    </edge>
    <edge id=":10287706677_0" function="internal">
        <lane id=":10287706677_0_0" index="0" disallow="pedestrian tram rail_urban rail rail_electric rail_fast ship" speed="11.11" length="0.10" shape="247.53,1287.11 247.53,1287.11"/>
    </edge>
    <edge id=":10287706677_1" function="internal">
        <lane id=":10287706677_1_0" index="0" disallow="pedestrian tram rail_urban rail rail_electric rail_fast ship" speed="11.11" length="0.10" shape="246.14,1284.23 246.14,1284.23"/>
    </edge>
    <edge id=":10287885323_0" function="internal">
        <lane id=":10287885323_0_0" index="0" disallow="tram rail_urban rail rail_electric rail_fast ship" speed="6.94" length="0.27" shape="448.43,1477.77 448.31,1477.54"/>
        <lane id=":10287885323_0_1" index="1" disallow="tram rail_urban rail rail_electric rail_fast ship" speed="6.94" length="0.27" shape="451.31,1476.39 451.19,1476.14"/>
    </edge>
    <edge id=":10287885323_2" function="internal">
        <lane id=":10287885323_2_0" index="0" disallow="tram rail_urban rail rail_electric rail_fast ship" speed="6.94" length="0.32" shape="456.94,1473.33 457.09,1473.64"/>
        <lane id=":10287885323_2_1" index="1" disallow="tram rail_urban rail rail_electric rail_fast ship" speed="6.94" length="0.32" shape="454.07,1474.74 454.20,1475.01"/>
    </edge>
    <edge id=":10287885359_0" function="internal">
        <lane id=":10287885359_0_0" index="0" disallow="tram rail_urban rail rail_electric rail_fast ship" speed="11.11" length="0.24" shape="703.26,1572.74 703.48,1572.64"/>
    </edge>
    <edge id=":10287885388_0" function="internal">
        <lane id=":10287885388_0_0" index="0" disallow="pedestrian tram rail_urban rail rail_electric rail_fast ship" speed="6.94" length="0.27" shape="685.75,1835.76 685.52,1835.87"/>
        <lane id=":10287885388_0_1" index="1" disallow="pedestrian tram rail_urban rail rail_electric rail_fast ship" speed="6.94" length="0.27" shape="684.30,1832.90 684.05,1833.03"/>
    </edge>
    <edge id=":10287885388_2" function="internal">
        <lane id=":10287885388_2_0" index="0" disallow="pedestrian tram rail_urban rail rail_electric rail_fast ship" speed="6.94" length="0.32" shape="681.12,1827.34 681.42,1827.19"/>
        <lane id=":10287885388_2_1" index="1" disallow="pedestrian tram rail_urban rail rail_electric rail_fast ship" speed="6.94" length="0.32" shape="682.59,1830.18 682.86,1830.04"/>
    </edge>
    <edge id=":10287885401_0" function="internal">
        <lane id=":10287885401_0_0" index="0" disallow="tram rail_urban rail rail_electric rail_fast ship" speed="6.94" length="0.30" shape="626.00,1910.84 625.87,1910.57"/>
        <lane id=":10287885401_0_1" index="1" disallow="tram rail_urban rail rail_electric rail_fast ship" speed="6.94" length="0.30" shape="628.89,1909.47 628.76,1909.20"/>
    </edge>
    <edge id=":10287885401_2" function="internal">
        <lane id=":10287885401_2_0" index="0" disallow="tram rail_urban rail rail_electric rail_fast ship" speed="6.94" length="0.30" shape="634.54,1906.45 634.67,1906.72"/>
        <lane id=":10287885401_2_1" index="1" disallow="tram rail_urban rail rail_electric rail_fast ship" speed="6.94" length="0.30" shape="631.65,1907.83 631.78,1908.09"/>
    </edge>
    <edge id=":10301321969_0" function="internal">
        <lane id=":10301321969_0_0" index="0" disallow="pedestrian tram rail_urban rail rail_electric rail_fast ship" speed="13.89" length="8.40" shape="3002.17,273.00 3000.20,274.57 2999.34,276.25 2998.47,277.93 2996.51,279.50"/>
        <lane id=":10301321969_0_1" index="1" disallow="pedestrian tram rail_urban rail rail_electric rail_fast ship" speed="13.89" length="8.40" shape="3002.17,273.00 2995.05,276.65"/>
    </edge>
    <edge id=":10301321969_2" function="internal">
        <lane id=":10301321969_2_0" index="0" disallow="pedestrian tram rail_urban rail rail_electric rail_fast ship" speed="13.89" length="8.00" shape="2993.59,273.80 3000.71,270.15"/>
    </edge>
    <edge id=":1055526422_0" function="internal">
        <lane id=":1055526422_0_0" index="0" disallow="pedestrian tram rail_urban rail rail_electric rail_fast ship" speed="8.33" length="12.07" shape="1306.80,165.34 1296.22,171.15"/>
        <lane id=":1055526422_0_1" index="1" disallow="pedestrian tram rail_urban rail rail_electric rail_fast ship" speed="8.33" length="12.07" shape="1305.26,162.54 1294.68,168.35"/>
    </edge>
    <edge id=":1055526422_2" function="internal">
        <lane id=":1055526422_2_0" index="0" disallow="pedestrian tram rail_urban rail rail_electric rail_fast ship" speed="6.57" length="14.05" shape="1305.26,162.54 1301.37,164.05 1298.88,163.54 1297.79,161.00 1298.11,156.43"/>
    </edge>
    <edge id=":1055526422_3" function="internal">
        <lane id=":1055526422_3_0" index="0" disallow="pedestrian tram rail_urban rail rail_electric rail_fast ship" speed="8.33" length="7.86" shape="1291.60,162.74 1292.69,161.83 1293.61,160.38 1294.37,158.39 1294.96,155.86"/>
    </edge>
    <edge id=":1055526422_4" function="internal">
        <lane id=":1055526422_4_0" index="0" disallow="pedestrian tram rail_urban rail rail_electric rail_fast ship" speed="8.33" length="12.07" shape="1291.60,162.74 1302.18,156.93"/>
        <lane id=":1055526422_4_1" index="1" disallow="pedestrian tram rail_urban rail rail_electric rail_fast ship" speed="8.33" length="12.07" shape="1293.14,165.54 1303.72,159.73"/>
    </edge>
    <edge id=":10570144342_0" function="internal">
        <lane id=":10570144342_0_0" index="0" disallow="tram rail_urban rail rail_electric rail_fast ship" speed="11.11" length="0.29" shape="506.27,2700.98 506.20,2700.69"/>
    </edge>
    <edge id=":10593327815_0" function="internal">
        <lane id=":10593327815_0_0" index="0" disallow="tram rail_urban rail rail_electric rail_fast ship" speed="5.56" length="15.15" shape="1177.18,2543.69 1181.88,2540.49 1185.58,2539.09 1188.28,2539.49 1189.98,2541.69"/>
        <lane id=":10593327815_0_1" index="1" disallow="tram rail_urban rail rail_electric rail_fast ship" speed="5.56" length="11.73" shape="1177.18,2543.69 1180.71,2541.34 1183.52,2540.41 1185.62,2540.91 1187.00,2542.84"/>
    </edge>
    <edge id=":10593366438_0" function="internal">
        <lane id=":10593366438_0_0" index="0" disallow="tram rail_urban rail rail_electric rail_fast ship" speed="5.56" length="12.06" shape="1729.40,1918.47 1726.09,1920.26 1723.00,1920.76 1720.15,1919.97 1717.52,1917.89"/>
        <lane id=":10593366438_0_1" index="1" disallow="tram rail_urban rail rail_electric rail_fast ship" speed="5.56" length="12.06" shape="1729.40,1918.47 1727.22,1919.42 1724.90,1919.28 1722.46,1918.05 1719.87,1915.72"/>
    </edge>
    <edge id=":10593366438_2" function="internal">
        <lane id=":10593366438_2_0" index="0" disallow="tram rail_urban rail rail_electric rail_fast ship" speed="5.56" length="7.35" shape="1724.58,1911.38 1726.35,1913.00 1728.00,1913.88 1729.54,1914.03 1730.95,1913.43"/>
    </edge>
    <edge id=":10635336851_0" function="internal">
        <lane id=":10635336851_0_0" index="0" disallow="pedestrian tram rail_urban rail rail_electric rail_fast ship" speed="13.89" length="8.76" shape="3286.42,1653.25 3284.07,1654.09 3282.19,1653.95 3280.31,1653.82 3277.97,1654.69"/>
    </edge>
    <edge id=":10635336851_1" function="internal">
        <lane id=":10635336851_1_0" index="0" disallow="pedestrian tram rail_urban rail rail_electric rail_fast ship" speed="13.89" length="8.42" shape="3276.28,1651.97 3278.11,1650.24 3278.85,1648.49 3279.60,1646.75 3281.45,1645.04"/>
        <lane id=":10635336851_1_1" index="1" disallow="pedestrian tram rail_urban rail rail_electric rail_fast ship" speed="13.89" length="8.42" shape="3276.28,1651.97 3283.11,1647.78"/>
    </edge>
    <edge id=":10656338167_0" function="internal">
        <lane id=":10656338167_0_0" index="0" disallow="pedestrian tram rail_urban rail rail_electric rail_fast ship" speed="13.89" length="7.95" shape="1937.37,2549.38 1930.94,2554.05"/>
    </edge>
    <edge id=":10656338167_1" function="internal">
        <lane id=":10656338167_1_0" index="0" disallow="pedestrian tram rail_urban rail rail_electric rail_fast ship" speed="13.89" length="8.41" shape="1929.04,2551.48 1930.73,2549.60 1931.33,2547.80 1931.93,2546.01 1933.65,2544.17"/>
        <lane id=":10656338167_1_1" index="1" disallow="pedestrian tram rail_urban rail rail_electric rail_fast ship" speed="13.89" length="8.41" shape="1929.04,2551.48 1935.51,2546.77"/>
    </edge>
    <edge id=":10673621542_0" function="internal">
        <lane id=":10673621542_0_0" index="0" disallow="pedestrian tram rail_urban rail rail_electric rail_fast ship" speed="8.33" length="0.10" shape="1906.84,630.85 1906.84,630.85"/>
        <lane id=":10673621542_0_1" index="1" disallow="pedestrian tram rail_urban rail rail_electric rail_fast ship" speed="8.33" length="0.10" shape="1905.28,628.06 1905.28,628.06"/>
    </edge>
    <edge id=":10673621542_2" function="internal">
        <lane id=":10673621542_2_0" index="0" disallow="pedestrian tram rail_urban rail rail_electric rail_fast ship" speed="8.33" length="0.10" shape="1902.15,622.47 1902.15,622.47"/>
        <lane id=":10673621542_2_1" index="1" disallow="pedestrian tram rail_urban rail rail_electric rail_fast ship" speed="8.33" length="0.10" shape="1903.71,625.26 1903.72,625.26"/>
    </edge>
    <edge id=":10882585317_0" function="internal">
        <lane id=":10882585317_0_0" index="0" disallow="pedestrian tram rail_urban rail rail_electric rail_fast ship" speed="11.11" length="0.10" shape="2406.95,1231.73 2406.95,1231.73"/>
    </edge>
    <edge id=":11021344237_0" function="internal">
        <lane id=":11021344237_0_0" index="0" disallow="tram rail_urban rail rail_electric rail_fast ship" speed="8.33" length="8.40" shape="481.63,2987.99 479.22,2987.27 477.35,2987.51 475.47,2987.75 473.07,2987.02"/>
        <lane id=":11021344237_0_1" index="1" disallow="tram rail_urban rail rail_electric rail_fast ship" speed="8.33" length="8.40" shape="481.63,2987.99 474.58,2984.20"/>
    </edge>
    <edge id=":11021344237_2" function="internal">
        <lane id=":11021344237_2_0" index="0" disallow="tram rail_urban rail rail_electric rail_fast ship" speed="8.33" length="8.00" shape="477.61,2978.56 484.66,2982.35"/>
        <lane id=":11021344237_2_1" index="1" disallow="tram rail_urban rail rail_electric rail_fast ship" speed="8.33" length="8.00" shape="476.10,2981.38 483.14,2985.17"/>
    </edge>
    <edge id=":11391147437_0" function="internal">
        <lane id=":11391147437_0_0" index="0" disallow="pedestrian tram rail_urban rail rail_electric rail_fast ship" speed="6.72" length="9.15" shape="1097.92,1020.10 1096.42,1018.21 1094.61,1017.21 1092.49,1017.11 1090.07,1017.90"/>
    </edge>
    <edge id=":11391147437_1" function="internal">
        <lane id=":11391147437_1_0" index="0" disallow="pedestrian tram rail_urban rail rail_electric rail_fast ship" speed="8.33" length="20.79" shape="1097.92,1020.10 1087.73,1001.98"/>
        <lane id=":11391147437_1_1" index="1" disallow="pedestrian tram rail_urban rail rail_electric rail_fast ship" speed="8.33" length="20.79" shape="1100.72,1018.53 1090.53,1000.43"/>
    </edge>
    <edge id=":11391147437_3" function="internal">
        <lane id=":11391147437_3_0" index="0" disallow="pedestrian tram rail_urban rail rail_electric rail_fast ship" speed="8.33" length="20.76" shape="1096.12,997.32 1106.30,1015.41"/>
        <lane id=":11391147437_3_1" index="1" disallow="pedestrian tram rail_urban rail rail_electric rail_fast ship" speed="8.33" length="20.76" shape="1093.32,998.88 1103.51,1016.97"/>
    </edge>
    <edge id=":11391147437_5" function="internal">
        <lane id=":11391147437_5_0" index="0" disallow="pedestrian tram rail_urban rail rail_electric rail_fast ship" speed="8.33" length="19.53" shape="1093.32,998.88 1095.30,1004.00 1095.17,1008.41 1092.91,1012.11 1088.54,1015.09"/>
    </edge>
    <edge id=":11391147437_6" function="internal">
        <lane id=":11391147437_6_0" index="0" disallow="pedestrian tram rail_urban rail rail_electric rail_fast ship" speed="6.39" length="9.04" shape="1085.47,1009.47 1087.50,1008.08 1088.56,1006.37 1088.63,1004.34 1087.73,1001.98"/>
    </edge>
    <edge id=":11391147437_7" function="internal">
        <lane id=":11391147437_7_0" index="0" disallow="pedestrian tram rail_urban rail rail_electric rail_fast ship" speed="8.33" length="19.26" shape="1087.00,1012.28 1092.07,1010.62 1096.52,1010.85 1100.33,1012.97 1103.51,1016.97"/>
    </edge>
    <edge id=":11409768005_0" function="internal">
        <lane id=":11409768005_0_0" index="0" disallow="pedestrian tram rail_urban rail rail_electric rail_fast ship" speed="13.89" length="17.18" shape="1151.44,3042.24 1155.03,3038.85 1157.70,3036.72 1160.18,3034.42 1163.15,3030.54"/>
        <lane id=":11409768005_0_1" index="1" disallow="pedestrian tram rail_urban rail rail_electric rail_fast ship" speed="13.89" length="17.18" shape="1153.87,3044.33 1157.53,3040.86 1160.26,3038.67 1162.77,3036.30 1165.81,3032.33"/>
        <lane id=":11409768005_0_2" index="2" disallow="pedestrian tram rail_urban rail rail_electric rail_fast ship" speed="13.89" length="17.18" shape="1156.30,3046.42 1160.04,3042.87 1162.81,3040.61 1165.36,3038.19 1168.46,3034.12"/>
        <lane id=":11409768005_0_3" index="3" disallow="pedestrian tram rail_urban rail rail_electric rail_fast ship" speed="13.89" length="17.18" shape="1158.73,3048.51 1162.54,3044.87 1165.36,3042.56 1167.95,3040.07 1171.12,3035.90"/>
    </edge>
    <edge id=":11409768005_4" function="internal">
        <lane id=":11409768005_4_0" index="0" disallow="pedestrian tram rail_urban rail rail_electric rail_fast ship" speed="13.89" length="17.52" shape="1164.36,3051.13 1164.22,3045.80 1164.50,3042.06 1165.73,3038.61 1168.46,3034.12"/>
        <lane id=":11409768005_4_1" index="1" disallow="pedestrian tram rail_urban rail rail_electric rail_fast ship" speed="13.89" length="17.52" shape="1167.58,3052.08 1167.40,3047.03 1167.54,3043.46 1168.58,3040.16 1171.12,3035.90"/>
    </edge>
    <edge id=":11415392532_0" function="internal">
        <lane id=":11415392532_0_0" index="0" disallow="pedestrian tram rail_urban rail rail_electric rail_fast ship" speed="13.89" length="21.06" shape="1256.77,3065.25 1253.41,3070.45 1251.72,3074.37 1250.42,3078.51 1248.17,3084.36"/>
        <lane id=":11415392532_0_1" index="1" disallow="pedestrian tram rail_urban rail rail_electric rail_fast ship" speed="13.89" length="21.39" shape="1256.77,3065.25 1252.91,3070.30 1250.23,3073.76 1247.93,3077.44 1245.21,3083.14"/>
        <lane id=":11415392532_0_2" index="2" disallow="pedestrian tram rail_urban rail rail_electric rail_fast ship" speed="13.89" length="22.33" shape="1256.77,3065.25 1252.37,3070.19 1248.72,3073.14 1245.47,3076.31 1242.24,3081.93"/>
    </edge>
    <edge id=":11415392532_3" function="internal">
        <lane id=":11415392532_3_0" index="0" disallow="pedestrian tram rail_urban rail rail_electric rail_fast ship" speed="13.89" length="22.32" shape="1256.77,3065.25 1252.49,3070.47 1248.93,3073.47 1244.86,3075.94 1239.06,3079.58"/>
        <lane id=":11415392532_3_1" index="1" disallow="pedestrian tram rail_urban rail rail_electric rail_fast ship" speed="13.89" length="22.32" shape="1254.19,3063.36 1250.03,3068.40 1246.55,3071.28 1242.57,3073.64 1236.93,3077.15"/>
        <lane id=":11415392532_3_2" index="2" disallow="pedestrian tram rail_urban rail rail_electric rail_fast ship" speed="13.89" length="22.32" shape="1251.61,3061.46 1247.56,3066.33 1244.16,3069.08 1240.29,3071.34 1234.81,3074.73"/>
    </edge>
    <edge id=":11426089350_0" function="internal">
        <lane id=":11426089350_0_0" index="0" disallow="tram rail_urban rail rail_electric rail_fast ship" speed="2.78" length="2.08" shape="2114.26,784.59 2114.43,785.18 2114.51,785.60 2114.52,786.02 2114.44,786.63"/>
    </edge>
    <edge id=":11426089350_1" function="internal">
        <lane id=":11426089350_1_0" index="0" disallow="tram rail_urban rail rail_electric rail_fast ship" speed="2.78" length="0.70" shape="2111.27,786.20 2111.30,785.99 2111.29,785.85 2111.26,785.71 2111.19,785.51"/>
    </edge>
    <edge id=":11432361986_0" function="internal">
        <lane id=":11432361986_0_0" index="0" disallow="pedestrian tram rail_urban rail rail_electric rail_fast ship" speed="13.89" length="18.88" shape="1193.19,3086.55 1187.69,3085.88 1183.88,3086.13 1180.03,3086.81 1174.45,3087.42"/>
        <lane id=":11432361986_0_1" index="1" disallow="pedestrian tram rail_urban rail rail_electric rail_fast ship" speed="13.89" length="19.30" shape="1193.78,3083.40 1188.16,3082.70 1184.26,3082.93 1180.33,3083.60 1174.62,3084.20"/>
        <lane id=":11432361986_0_2" index="2" disallow="pedestrian tram rail_urban rail rail_electric rail_fast ship" speed="13.89" length="19.24" shape="1193.78,3083.40 1188.19,3082.20 1184.34,3081.33 1180.47,3080.89 1174.79,3080.99"/>
    </edge>
    <edge id=":11432361986_3" function="internal">
        <lane id=":11432361986_3_0" index="0" disallow="pedestrian tram rail_urban rail rail_electric rail_fast ship" speed="13.89" length="19.09" shape="1194.37,3080.25 1188.73,3079.49 1184.77,3079.12 1181.04,3078.14 1176.12,3075.54"/>
        <lane id=":11432361986_3_1" index="1" disallow="pedestrian tram rail_urban rail rail_electric rail_fast ship" speed="13.89" length="19.09" shape="1194.37,3080.25 1188.81,3079.21 1185.01,3078.11 1181.66,3076.13 1177.46,3072.43"/>
    </edge>
    <edge id=":11432361987_0" function="internal">
        <lane id=":11432361987_0_0" index="0" disallow="pedestrian tram rail_urban rail rail_electric rail_fast ship" speed="13.89" length="21.18" shape="1241.96,2996.29 1248.07,2997.68 1252.32,2998.31 1256.62,2998.68 1262.88,2999.32"/>
        <lane id=":11432361987_0_1" index="1" disallow="pedestrian tram rail_urban rail rail_electric rail_fast ship" speed="13.89" length="21.34" shape="1241.16,2999.39 1247.33,3000.80 1251.61,3001.44 1255.94,3001.82 1262.25,3002.47"/>
        <lane id=":11432361987_0_2" index="2" disallow="pedestrian tram rail_urban rail rail_electric rail_fast ship" speed="13.89" length="21.45" shape="1241.16,2999.39 1247.24,3001.29 1251.29,3003.01 1255.40,3004.47 1261.62,3005.61"/>
    </edge>
    <edge id=":11432361987_3" function="internal">
        <lane id=":11432361987_3_0" index="0" disallow="pedestrian tram rail_urban rail rail_electric rail_fast ship" speed="13.89" length="21.69" shape="1240.37,3002.49 1246.67,3003.90 1251.16,3005.07 1254.97,3007.17 1259.26,3011.39"/>
        <lane id=":11432361987_3_1" index="1" disallow="pedestrian tram rail_urban rail rail_electric rail_fast ship" speed="13.89" length="21.69" shape="1240.37,3002.49 1246.55,3004.44 1250.56,3006.74 1253.85,3009.97 1257.89,3014.69"/>
    </edge>
    <edge id=":11806567841_0" function="internal">
        <lane id=":11806567841_0_0" index="0" disallow="pedestrian tram rail_urban rail rail_electric rail_fast ship" speed="7.81" length="7.89" shape="511.97,858.97 511.39,861.72 511.20,863.92 511.40,865.55 511.99,866.62"/>
        <lane id=":11806567841_0_1" index="1" disallow="pedestrian tram rail_urban rail rail_electric rail_fast ship" speed="9.19" length="11.14" shape="508.87,858.18 508.17,861.78 508.08,864.76 508.60,867.12 509.71,868.87"/>
    </edge>
    <edge id=":11806567841_2" function="internal">
        <lane id=":11806567841_2_0" index="0" disallow="pedestrian tram rail_urban rail rail_electric rail_fast ship" speed="13.89" length="10.10" shape="503.84,860.03 506.54,861.59 508.26,862.86 509.81,864.37 511.99,866.62"/>
        <lane id=":11806567841_2_1" index="1" disallow="pedestrian tram rail_urban rail rail_electric rail_fast ship" speed="13.89" length="10.10" shape="501.79,862.56 504.40,864.05 506.08,865.27 507.60,866.70 509.71,868.87"/>
        <lane id=":11806567841_2_2" index="2" disallow="pedestrian tram rail_urban rail rail_electric rail_fast ship" speed="13.89" length="10.10" shape="500.02,865.24 502.46,866.63 504.04,867.76 505.46,869.09 507.43,871.12"/>
    </edge>
    <edge id=":1211739621_0" function="internal">
        <lane id=":1211739621_0_0" index="0" disallow="pedestrian tram rail_urban rail rail_electric rail_fast ship" speed="6.48" length="9.03" shape="3164.28,196.27 3162.87,194.23 3161.15,193.14 3159.11,192.99 3156.77,193.80"/>
    </edge>
    <edge id=":1211739621_1" function="internal">
        <lane id=":1211739621_1_0" index="0" disallow="pedestrian tram rail_urban rail rail_electric rail_fast ship" speed="8.06" length="14.20" shape="3164.28,196.27 3163.04,192.57 3163.26,189.35 3164.94,186.61 3168.07,184.36"/>
    </edge>
    <edge id=":1211739621_2" function="internal">
        <lane id=":1211739621_2_0" index="0" disallow="pedestrian tram rail_urban rail rail_electric rail_fast ship" speed="6.58" length="9.11" shape="3169.55,187.19 3167.55,188.64 3166.48,190.40 3166.34,192.47 3167.14,194.85"/>
    </edge>
    <edge id=":1211739621_3" function="internal">
        <lane id=":1211739621_3_0" index="0" disallow="pedestrian tram rail_urban rail rail_electric rail_fast ship" speed="13.89" length="14.39" shape="3169.55,187.19 3156.77,193.80"/>
    </edge>
    <edge id=":1211739621_4" function="internal">